LTspice 24.1.10 for Windows
Circuit: C:\Users\denpo\OneDrive\Área de Trabalho\FCT\MEEC\1ano\2semestre\ERF\Pratica\Lab\Lab Final\Lab Final\LNA_adapt_LS.net
Start Time: Mon Apr 20 01:23:55 2026
solver = Normal
Maximum thread count: 16
tnom = 27
temp = 27
method = trap
Direct Newton iteration for .op point succeeded.
Total elapsed time: 0.093 seconds.

Files loaded:
C:\Users\denpo\OneDrive\Área de Trabalho\FCT\MEEC\1ano\2semestre\ERF\Pratica\Lab\Lab Final\Lab Final\LNA_adapt_LS.net
C:\Users\denpo\AppData\Local\LTspice\lib\cmp\standard.dio
C:\Users\denpo\AppData\Local\LTspice\lib\cmp\standard.bjt

